128
graphite
C         -0.00000        1.42017        0.00000
C          1.22990        0.71008        0.00000
C         -0.00000        1.42017        6.80000
C          1.22990        0.71008        6.80000
C         -0.00000        1.42017       13.60000
C          1.22990        0.71008       13.60000
C         -0.00000        1.42017       20.40000
C          1.22990        0.71008       20.40000
C         -1.22990        3.55042        0.00000
C         -0.00000        2.84033        0.00000
C         -1.22990        3.55042        6.80000
C         -0.00000        2.84033        6.80000
C         -1.22990        3.55042       13.60000
C         -0.00000        2.84033       13.60000
C         -1.22990        3.55042       20.40000
C         -0.00000        2.84033       20.40000
C         -2.45980        5.68066        0.00000
C         -1.22990        4.97058        0.00000
C         -2.45980        5.68066        6.80000
C         -1.22990        4.97058        6.80000
C         -2.45980        5.68066       13.60000
C         -1.22990        4.97058       13.60000
C         -2.45980        5.68066       20.40000
C         -1.22990        4.97058       20.40000
C         -3.68970        7.81091        0.00000
C         -2.45980        7.10083        0.00000
C         -3.68970        7.81091        6.80000
C         -2.45980        7.10083        6.80000
C         -3.68970        7.81091       13.60000
C         -2.45980        7.10083       13.60000
C         -3.68970        7.81091       20.40000
C         -2.45980        7.10083       20.40000
C          2.45980        1.42017        0.00000
C          3.68970        0.71008        0.00000
C          2.45980        1.42017        6.80000
C          3.68970        0.71008        6.80000
C          2.45980        1.42017       13.60000
C          3.68970        0.71008       13.60000
C          2.45980        1.42017       20.40000
C          3.68970        0.71008       20.40000
C          1.22990        3.55042        0.00000
C          2.45980        2.84033        0.00000
C          1.22990        3.55042        6.80000
C          2.45980        2.84033        6.80000
C          1.22990        3.55042       13.60000
C          2.45980        2.84033       13.60000
C          1.22990        3.55042       20.40000
C          2.45980        2.84033       20.40000
C         -0.00000        5.68066        0.00000
C          1.22990        4.97058        0.00000
C         -0.00000        5.68066        6.80000
C          1.22990        4.97058        6.80000
C         -0.00000        5.68066       13.60000
C          1.22990        4.97058       13.60000
C         -0.00000        5.68066       20.40000
C          1.22990        4.97058       20.40000
C         -1.22990        7.81091        0.00000
C         -0.00000        7.10083        0.00000
C         -1.22990        7.81091        6.80000
C         -0.00000        7.10083        6.80000
C         -1.22990        7.81091       13.60000
C         -0.00000        7.10083       13.60000
C         -1.22990        7.81091       20.40000
C         -0.00000        7.10083       20.40000
C          4.91960        1.42017        0.00000
C          6.14950        0.71008        0.00000
C          4.91960        1.42017        6.80000
C          6.14950        0.71008        6.80000
C          4.91960        1.42017       13.60000
C          6.14950        0.71008       13.60000
C          4.91960        1.42017       20.40000
C          6.14950        0.71008       20.40000
C          3.68970        3.55042        0.00000
C          4.91960        2.84033        0.00000
C          3.68970        3.55042        6.80000
C          4.91960        2.84033        6.80000
C          3.68970        3.55042       13.60000
C          4.91960        2.84033       13.60000
C          3.68970        3.55042       20.40000
C          4.91960        2.84033       20.40000
C          2.45980        5.68066        0.00000
C          3.68970        4.97058        0.00000
C          2.45980        5.68066        6.80000
C          3.68970        4.97058        6.80000
C          2.45980        5.68066       13.60000
C          3.68970        4.97058       13.60000
C          2.45980        5.68066       20.40000
C          3.68970        4.97058       20.40000
C          1.22990        7.81091        0.00000
C          2.45980        7.10083        0.00000
C          1.22990        7.81091        6.80000
C          2.45980        7.10083        6.80000
C          1.22990        7.81091       13.60000
C          2.45980        7.10083       13.60000
C          1.22990        7.81091       20.40000
C          2.45980        7.10083       20.40000
C          7.37940        1.42017        0.00000
C          8.60930        0.71008        0.00000
C          7.37940        1.42017        6.80000
C          8.60930        0.71008        6.80000
C          7.37940        1.42017       13.60000
C          8.60930        0.71008       13.60000
C          7.37940        1.42017       20.40000
C          8.60930        0.71008       20.40000
C          6.14950        3.55042        0.00000
C          7.37940        2.84033        0.00000
C          6.14950        3.55042        6.80000
C          7.37940        2.84033        6.80000
C          6.14950        3.55042       13.60000
C          7.37940        2.84033       13.60000
C          6.14950        3.55042       20.40000
C          7.37940        2.84033       20.40000
C          4.91960        5.68066        0.00000
C          6.14950        4.97058        0.00000
C          4.91960        5.68066        6.80000
C          6.14950        4.97058        6.80000
C          4.91960        5.68066       13.60000
C          6.14950        4.97058       13.60000
C          4.91960        5.68066       20.40000
C          6.14950        4.97058       20.40000
C          3.68970        7.81091        0.00000
C          4.91960        7.10083        0.00000
C          3.68970        7.81091        6.80000
C          4.91960        7.10083        6.80000
C          3.68970        7.81091       13.60000
C          4.91960        7.10083       13.60000
C          3.68970        7.81091       20.40000
C          4.91960        7.10083       20.40000
